<?xml version="1.0" encoding="UTF-8"?>

<!-- generated on 2025-02-14 18:56:20 by Eclipse SUMO netconvert Version 1.20.0
<configuration xmlns:xsi="http://www.w3.org/2001/XMLSchema-instance" xsi:noNamespaceSchemaLocation="http://sumo.dlr.de/xsd/netconvertConfiguration.xsd">

    <input>
        <osm-files value="osm_bbox.osm.xml.gz"/>
    </input>

    <output>
        <output-file value="osm.net.xml"/>
    </output>

    <projection>
        <proj.utm value="true"/>
    </projection>

</configuration>
-->

<net version="1.20" junctionCornerDetail="5" limitTurnSpeed="5.50" xmlns:xsi="http://www.w3.org/2001/XMLSchema-instance" xsi:noNamespaceSchemaLocation="http://sumo.dlr.de/xsd/net_file.xsd">

    <location netOffset="-578111.62,-5618666.24" convBoundary="0.00,0.00,1774.30,1270.55" origBoundary="-1.893338,50.714486,-1.868357,50.725770" projParameter="+proj=utm +zone=30 +ellps=WGS84 +datum=WGS84 +units=m +no_defs"/>

    <type id="highway.cycleway" priority="1" numLanes="1" speed="5.56" allow="bicycle" oneway="0" width="2.00"/>
    <type id="highway.footway" priority="1" numLanes="1" speed="2.78" allow="pedestrian" oneway="1" width="2.00"/>
    <type id="highway.path" priority="1" numLanes="1" speed="5.56" allow="pedestrian bicycle" oneway="0" width="2.00"/>
    <type id="highway.pedestrian" priority="1" numLanes="1" speed="2.78" allow="pedestrian" oneway="1" width="2.00"/>
    <type id="highway.primary" priority="12" numLanes="2" speed="27.78" disallow="tram rail_urban rail rail_electric rail_fast ship container cable_car subway aircraft wheelchair scooter drone" oneway="0"/>
    <type id="highway.residential" priority="3" numLanes="1" speed="13.89" disallow="tram rail_urban rail rail_electric rail_fast ship container cable_car subway aircraft wheelchair scooter drone" oneway="0"/>
    <type id="highway.secondary" priority="11" numLanes="1" speed="27.78" disallow="tram rail_urban rail rail_electric rail_fast ship container cable_car subway aircraft wheelchair scooter drone" oneway="0"/>
    <type id="highway.service" priority="1" numLanes="1" speed="5.56" allow="pedestrian delivery bicycle" oneway="0"/>
    <type id="highway.steps" priority="1" numLanes="1" speed="1.39" allow="pedestrian" oneway="1" width="2.00"/>
    <type id="highway.tertiary" priority="10" numLanes="1" speed="22.22" disallow="tram rail_urban rail rail_electric rail_fast ship container cable_car subway aircraft wheelchair scooter drone" oneway="0"/>
    <type id="highway.tertiary_link" priority="5" numLanes="1" speed="22.22" disallow="tram rail_urban rail rail_electric rail_fast ship container cable_car subway aircraft wheelchair scooter drone" oneway="0"/>
    <type id="highway.trunk" priority="13" numLanes="2" speed="27.78" disallow="pedestrian bicycle tram rail_urban rail rail_electric rail_fast ship container cable_car subway aircraft wheelchair scooter drone" oneway="0"/>
    <type id="highway.trunk_link" priority="8" numLanes="1" speed="22.22" disallow="pedestrian bicycle tram rail_urban rail rail_electric rail_fast ship container cable_car subway aircraft wheelchair scooter drone" oneway="0"/>
    <type id="highway.unclassified" priority="4" numLanes="1" speed="13.89" disallow="tram rail_urban rail rail_electric rail_fast ship container cable_car subway aircraft wheelchair scooter drone" oneway="0"/>

    <edge id=":10019981830_0" function="internal">
        <lane id=":10019981830_0_0" index="0" allow="pedestrian delivery bicycle" speed="5.22" length="5.22" shape="376.52,795.38 375.64,794.18 374.62,793.52 373.47,793.38 372.18,793.78"/>
    </edge>
    <edge id=":10019981830_1" function="internal">
        <lane id=":10019981830_1_0" index="0" allow="pedestrian delivery bicycle" speed="6.82" length="10.42" shape="376.52,795.38 375.49,792.70 375.60,790.36 376.84,788.39 379.22,786.77"/>
    </edge>
    <edge id=":10019981830_2" function="internal">
        <lane id=":10019981830_2_0" index="0" allow="pedestrian delivery bicycle" speed="3.65" length="4.67" shape="376.52,795.38 376.64,793.95 377.14,793.21 378.04,793.17 379.32,793.83"/>
    </edge>
    <edge id=":10019981830_3" function="internal">
        <lane id=":10019981830_3_0" index="0" allow="pedestrian delivery bicycle" speed="4.99" length="5.06" shape="380.63,789.64 379.47,790.43 378.87,791.39 378.82,792.52 379.32,793.83"/>
    </edge>
    <edge id=":10019981830_4" function="internal">
        <lane id=":10019981830_4_0" index="0" disallow="tram rail_urban rail rail_electric rail_fast ship container cable_car subway aircraft wheelchair scooter drone" speed="13.89" length="9.41" shape="380.63,789.64 372.18,793.78"/>
    </edge>
    <edge id=":10019981830_5" function="internal">
        <lane id=":10019981830_5_0" index="0" disallow="tram rail_urban rail rail_electric rail_fast ship container cable_car subway aircraft wheelchair scooter drone" speed="13.89" length="9.41" shape="370.77,790.91 379.22,786.77"/>
    </edge>
    <edge id=":10019981830_6" function="internal">
        <lane id=":10019981830_6_0" index="0" allow="pedestrian delivery bicycle" speed="7.00" length="3.16" shape="370.77,790.91 373.34,790.09 373.81,790.13"/>
    </edge>
    <edge id=":10019981830_7" function="internal">
        <lane id=":10019981830_7_0" index="0" allow="pedestrian delivery bicycle" speed="7.00" length="7.02" shape="373.81,790.13 375.63,790.30 377.62,791.55 379.32,793.83"/>
    </edge>
    <edge id=":10019981831_0" function="internal">
        <lane id=":10019981831_0_0" index="0" allow="pedestrian delivery bicycle" speed="3.65" length="4.67" shape="392.72,817.89 392.61,819.33 392.11,820.07 391.21,820.11 389.93,819.45"/>
    </edge>
    <edge id=":10029093362_0" function="internal">
        <lane id=":10029093362_0_0" index="0" disallow="tram rail_urban rail rail_electric rail_fast ship container cable_car subway aircraft wheelchair scooter drone" speed="22.22" length="0.26" shape="664.09,642.11 664.16,642.09 664.21,642.07 664.26,642.05 664.33,642.01"/>
    </edge>
    <edge id=":10197549526_0" function="internal">
        <lane id=":10197549526_0_0" index="0" disallow="tram rail_urban rail rail_electric rail_fast ship container cable_car subway aircraft wheelchair scooter drone" speed="8.94" length="8.38" shape="943.82,593.27 942.39,585.02"/>
    </edge>
    <edge id=":10197549526_1" function="internal">
        <lane id=":10197549526_1_0" index="0" allow="pedestrian bicycle" speed="6.59" length="3.12" width="2.00" shape="943.82,593.27 943.71,591.11 943.96,590.19"/>
    </edge>
    <edge id=":10197549526_7" function="internal">
        <lane id=":10197549526_7_0" index="0" allow="pedestrian bicycle" speed="6.59" length="4.60" width="2.00" shape="943.96,590.19 944.20,589.33 945.27,587.94 946.95,586.94"/>
    </edge>
    <edge id=":10197549526_2" function="internal">
        <lane id=":10197549526_2_0" index="0" allow="pedestrian bicycle" speed="4.93" length="4.26" width="2.00" shape="947.71,588.79 947.17,589.24 946.87,590.04 946.80,591.21 946.98,592.73"/>
    </edge>
    <edge id=":10197549526_3" function="internal">
        <lane id=":10197549526_3_0" index="0" allow="pedestrian bicycle" speed="5.56" length="7.84" width="2.00" shape="947.71,588.79 945.75,589.22 944.21,588.74 943.09,587.34 942.39,585.02"/>
    </edge>
    <edge id=":10197549526_4" function="internal">
        <lane id=":10197549526_4_0" index="0" allow="pedestrian bicycle" speed="2.89" length="2.92" width="2.00" shape="947.71,588.79 946.83,588.61 946.40,588.24 946.44,587.69 946.95,586.94"/>
    </edge>
    <edge id=":10197549526_5" function="internal">
        <lane id=":10197549526_5_0" index="0" allow="pedestrian bicycle" speed="3.96" length="3.14" width="2.00" shape="945.55,584.47 945.71,585.33 945.96,586.22 946.36,586.85 946.95,586.94"/>
    </edge>
    <edge id=":10197549526_6" function="internal">
        <lane id=":10197549526_6_0" index="0" disallow="tram rail_urban rail rail_electric rail_fast ship container cable_car subway aircraft wheelchair scooter drone" speed="8.94" length="8.38" shape="945.55,584.47 946.98,592.73"/>
    </edge>
    <edge id=":10244984924_0" function="internal">
        <lane id=":10244984924_0_0" index="0" disallow="tram rail_urban rail rail_electric rail_fast ship container cable_car subway aircraft wheelchair scooter drone" speed="22.22" length="9.41" shape="120.05,676.37 111.12,679.32"/>
    </edge>
    <edge id=":10244984924_1" function="internal">
        <lane id=":10244984924_1_0" index="0" allow="pedestrian delivery bicycle" speed="6.84" length="3.29" shape="120.05,676.37 117.27,676.87 116.82,676.77"/>
    </edge>
    <edge id=":10244984924_7" function="internal">
        <lane id=":10244984924_7_0" index="0" allow="pedestrian delivery bicycle" speed="6.84" length="6.99" shape="116.82,676.77 115.01,676.35 113.29,674.81 112.09,672.25"/>
    </edge>
    <edge id=":10244984924_2" function="internal">
        <lane id=":10244984924_2_0" index="0" allow="pedestrian delivery bicycle" speed="5.01" length="5.03" shape="115.15,671.32 115.74,672.57 116.58,673.32 117.69,673.58 119.05,673.34"/>
    </edge>
    <edge id=":10244984924_3" function="internal">
        <lane id=":10244984924_3_0" index="0" allow="pedestrian delivery bicycle" speed="6.92" length="10.17" shape="115.15,671.32 115.59,674.09 115.07,676.35 113.57,678.10 111.12,679.32"/>
    </edge>
    <edge id=":10244984924_4" function="internal">
        <lane id=":10244984924_4_0" index="0" allow="pedestrian delivery bicycle" speed="3.65" length="4.67" shape="115.15,671.32 114.74,672.70 114.09,673.31 113.21,673.16 112.09,672.25"/>
    </edge>
    <edge id=":10244984924_5" function="internal">
        <lane id=":10244984924_5_0" index="0" allow="pedestrian delivery bicycle" speed="5.12" length="5.10" shape="110.12,676.28 111.33,675.67 112.07,674.79 112.32,673.65 112.09,672.25"/>
    </edge>
    <edge id=":10244984924_6" function="internal">
        <lane id=":10244984924_6_0" index="0" disallow="tram rail_urban rail rail_electric rail_fast ship container cable_car subway aircraft wheelchair scooter drone" speed="22.22" length="9.40" shape="110.12,676.28 119.05,673.34"/>
    </edge>
    <edge id=":10244984928_0" function="internal">
        <lane id=":10244984928_0_0" index="0" allow="pedestrian delivery bicycle" speed="3.65" length="4.67" shape="110.83,629.80 109.45,629.36 108.84,628.71 109.01,627.83 109.94,626.72"/>
    </edge>
    <edge id=":10244984944_0" function="internal">
        <lane id=":10244984944_0_0" index="0" allow="pedestrian delivery bicycle" speed="3.65" length="4.67" shape="140.88,595.59 141.27,594.20 141.90,593.57 142.78,593.70 143.92,594.58"/>
    </edge>
    <edge id=":10244984945_0" function="internal">
        <lane id=":10244984945_0_0" index="0" disallow="tram rail_urban rail rail_electric rail_fast ship container cable_car subway aircraft wheelchair scooter drone" speed="22.22" length="6.20" shape="78.53,690.01 72.64,691.94"/>
    </edge>
    <edge id=":10244984945_1" function="internal">
        <lane id=":10244984945_1_0" index="0" allow="pedestrian delivery bicycle" speed="6.06" length="1.70" shape="78.53,690.01 77.09,690.06 76.88,689.93"/>
    </edge>
    <edge id=":10244984945_4" function="internal">
        <lane id=":10244984945_4_0" index="0" allow="pedestrian delivery bicycle" speed="6.06" length="6.10" shape="76.88,689.93 75.80,689.24 74.65,687.54 73.64,684.96"/>
    </edge>
    <edge id=":10244984945_2" function="internal">
        <lane id=":10244984945_2_0" index="0" allow="pedestrian delivery bicycle" speed="5.08" length="5.02" shape="71.64,688.90 72.86,688.29 73.60,687.44 73.86,686.32 73.64,684.96"/>
    </edge>
    <edge id=":10244984945_3" function="internal">
        <lane id=":10244984945_3_0" index="0" disallow="tram rail_urban rail rail_electric rail_fast ship container cable_car subway aircraft wheelchair scooter drone" speed="22.22" length="6.20" shape="71.64,688.90 77.53,686.97"/>
    </edge>
    <edge id=":10244984956_0" function="internal">
        <lane id=":10244984956_0_0" index="0" disallow="tram rail_urban rail rail_electric rail_fast ship container cable_car subway aircraft wheelchair scooter drone" speed="22.22" length="6.20" shape="63.34,695.00 57.45,696.93"/>
    </edge>
    <edge id=":10244984956_1" function="internal">
        <lane id=":10244984956_1_0" index="0" allow="pedestrian delivery bicycle" speed="5.03" length="5.01" shape="58.44,689.97 59.04,691.20 59.89,691.94 60.99,692.19 62.34,691.96"/>
    </edge>
    <edge id=":10244984956_2" function="internal">
        <lane id=":10244984956_2_0" index="0" allow="pedestrian delivery bicycle" speed="6.09" length="7.76" shape="58.44,689.97 59.10,692.65 59.16,694.71 58.61,696.14 57.45,696.93"/>
    </edge>
    <edge id=":10244984956_3" function="internal">
        <lane id=":10244984956_3_0" index="0" disallow="tram rail_urban rail rail_electric rail_fast ship container cable_car subway aircraft wheelchair scooter drone" speed="22.22" length="6.20" shape="56.45,693.89 62.34,691.96"/>
    </edge>
    <edge id=":10244984958_0" function="internal">
        <lane id=":10244984958_0_0" index="0" disallow="tram rail_urban rail rail_electric rail_fast ship container cable_car subway aircraft wheelchair scooter drone" speed="22.22" length="9.40" shape="53.71,698.16 44.78,701.09"/>
    </edge>
    <edge id=":10244984958_1" function="internal">
        <lane id=":10244984958_1_0" index="0" allow="pedestrian delivery bicycle" speed="6.87" length="3.26" shape="53.71,698.16 50.98,698.64 50.51,698.53"/>
    </edge>
    <edge id=":10244984958_7" function="internal">
        <lane id=":10244984958_7_0" index="0" allow="pedestrian delivery bicycle" speed="6.87" length="6.90" shape="50.51,698.53 48.74,698.13 47.00,696.63 45.76,694.13"/>
    </edge>
    <edge id=":10244984958_2" function="internal">
        <lane id=":10244984958_2_0" index="0" allow="pedestrian delivery bicycle" speed="5.05" length="5.01" shape="48.80,693.12 49.41,694.36 50.27,695.10 51.37,695.35 52.72,695.11"/>
    </edge>
    <edge id=":10244984958_3" function="internal">
        <lane id=":10244984958_3_0" index="0" allow="pedestrian delivery bicycle" speed="6.86" length="10.17" shape="48.80,693.12 49.29,695.87 48.78,698.11 47.28,699.85 44.78,701.09"/>
    </edge>
    <edge id=":10244984958_4" function="internal">
        <lane id=":10244984958_4_0" index="0" allow="pedestrian delivery bicycle" speed="3.65" length="4.67" shape="48.80,693.12 48.41,694.51 47.78,695.15 46.89,695.02 45.76,694.13"/>
    </edge>
    <edge id=":10244984958_5" function="internal">
        <lane id=":10244984958_5_0" index="0" allow="pedestrian delivery bicycle" speed="5.04" length="5.00" shape="43.78,698.04 45.01,697.44 45.75,696.58 46.00,695.48 45.76,694.13"/>
    </edge>
    <edge id=":10244984958_6" function="internal">
        <lane id=":10244984958_6_0" index="0" disallow="tram rail_urban rail rail_electric rail_fast ship container cable_car subway aircraft wheelchair scooter drone" speed="22.22" length="9.40" shape="43.78,698.04 52.72,695.11"/>
    </edge>
    <edge id=":10244984960_0" function="internal">
        <lane id=":10244984960_0_0" index="0" allow="pedestrian delivery bicycle" speed="3.65" length="4.67" shape="21.55,684.84 20.15,684.47 19.52,683.84 19.64,682.95 20.52,681.81"/>
    </edge>
    <edge id=":10244984962_0" function="internal">
        <lane id=":10244984962_0_0" index="0" allow="pedestrian delivery bicycle" speed="3.65" length="4.67" shape="147.96,686.98 146.58,686.56 145.97,685.90 146.12,685.02 147.05,683.92"/>
    </edge>
    <edge id=":10244984963_0" function="internal">
        <lane id=":10244984963_0_0" index="0" allow="pedestrian delivery bicycle" speed="5.56" length="9.40" shape="174.89,679.01 165.88,681.68"/>
    </edge>
    <edge id=":10244984963_1" function="internal">
        <lane id=":10244984963_1_0" index="0" allow="pedestrian delivery bicycle" speed="5.56" length="10.17" shape="174.89,679.01 172.18,679.40 169.97,678.81 168.24,677.25 167.01,674.72"/>
    </edge>
    <edge id=":10244984963_2" function="internal">
        <lane id=":10244984963_2_0" index="0" allow="pedestrian delivery bicycle" speed="3.65" length="4.67" shape="174.89,679.01 173.51,678.58 172.90,677.93 173.06,677.05 173.98,675.94"/>
    </edge>
    <edge id=":10244984963_3" function="internal">
        <lane id=":10244984963_3_0" index="0" allow="pedestrian delivery bicycle" speed="5.14" length="5.11" shape="170.05,673.73 170.67,675.02 171.54,675.82 172.64,676.13 173.98,675.94"/>
    </edge>
    <edge id=":10244984963_4" function="internal">
        <lane id=":10244984963_4_0" index="0" allow="pedestrian delivery bicycle" speed="5.56" length="10.30" shape="170.05,673.73 170.54,676.52 170.01,678.77 168.45,680.49 165.88,681.68"/>
    </edge>
    <edge id=":10244984963_5" function="internal">
        <lane id=":10244984963_5_0" index="0" allow="pedestrian delivery bicycle" speed="3.65" length="4.67" shape="170.05,673.73 169.66,675.12 169.03,675.75 168.14,675.62 167.01,674.72"/>
    </edge>
    <edge id=":10244984963_6" function="internal">
        <lane id=":10244984963_6_0" index="0" allow="pedestrian delivery bicycle" speed="5.01" length="5.03" shape="164.97,678.61 166.23,678.03 166.99,677.19 167.25,676.09 167.01,674.72"/>
    </edge>
    <edge id=":10244984963_7" function="internal">
        <lane id=":10244984963_7_0" index="0" allow="pedestrian delivery bicycle" speed="5.56" length="9.40" shape="164.97,678.61 173.98,675.94"/>
    </edge>
    <edge id=":10244984963_8" function="internal">
        <lane id=":10244984963_8_0" index="0" allow="pedestrian delivery bicycle" speed="3.65" length="4.67" shape="164.97,678.61 166.35,679.03 166.96,679.69 166.80,680.57 165.88,681.68"/>
    </edge>
    <edge id=":10244985151_0" function="internal">
        <lane id=":10244985151_0_0" index="0" allow="pedestrian delivery bicycle" speed="3.65" length="4.67" shape="14.61,238.59 13.19,238.38 12.48,237.82 12.50,236.93 13.25,235.69"/>
    </edge>
    <edge id=":10244985152_0" function="internal">
        <lane id=":10244985152_0_0" index="0" allow="pedestrian delivery bicycle" speed="5.56" length="10.19" shape="39.64,222.39 39.31,232.57"/>
    </edge>
    <edge id=":10244985152_1" function="internal">
        <lane id=":10244985152_1_0" index="0" allow="pedestrian delivery bicycle" speed="5.56" length="11.01" shape="39.64,222.39 39.14,224.53 37.79,226.53 35.58,228.39 32.52,230.11"/>
    </edge>
    <edge id=":10244985152_2" function="internal">
        <lane id=":10244985152_2_0" index="0" allow="pedestrian delivery bicycle" speed="3.65" length="4.67" shape="39.64,222.39 38.80,223.56 37.99,223.93 37.21,223.51 36.45,222.28"/>
    </edge>
    <edge id=":10244985152_3" function="internal">
        <lane id=":10244985152_3_0" index="0" allow="pedestrian delivery bicycle" speed="5.56" length="7.53" shape="31.16,227.22 33.44,225.99 35.08,224.76 36.08,223.52 36.45,222.28"/>
    </edge>
    <edge id=":10244985152_4" function="internal">
        <lane id=":10244985152_4_0" index="0" allow="pedestrian delivery bicycle" speed="5.56" length="12.99" shape="31.16,227.22 34.84,226.06 37.42,226.56 38.92,228.73 39.31,232.57"/>
    </edge>
    <edge id=":10244985152_5" function="internal">
        <lane id=":10244985152_5_0" index="0" allow="pedestrian delivery bicycle" speed="3.65" length="4.67" shape="31.16,227.22 32.58,227.43 33.29,227.98 33.27,228.88 32.52,230.11"/>
    </edge>
    <edge id=":10244985152_6" function="internal">
        <lane id=":10244985152_6_0" index="0" allow="pedestrian delivery bicycle" speed="4.70" length="5.72" shape="36.12,232.47 35.94,230.78 35.28,229.82 34.15,229.60 32.52,230.11"/>
    </edge>
    <edge id=":10244985152_7" function="internal">
        <lane id=":10244985152_7_0" index="0" allow="pedestrian delivery bicycle" speed="5.56" length="10.19" shape="36.12,232.47 36.45,222.28"/>
    </edge>
    <edge id=":10244985152_8" function="internal">
        <lane id=":10244985152_8_0" index="0" allow="pedestrian delivery bicycle" speed="3.65" length="4.67" shape="36.12,232.47 36.95,231.30 37.77,230.92 38.55,231.35 39.31,232.57"/>
    </edge>
    <edge id=":10244985157_0" function="internal">
        <lane id=":10244985157_0_0" index="0" allow="pedestrian delivery bicycle" speed="3.65" length="4.67" shape="18.39,254.18 16.95,254.20 16.16,253.77 16.04,252.89 16.57,251.55"/>
    </edge>
    <edge id=":10245056198_0" function="internal">
        <lane id=":10245056198_0_0" index="0" disallow="tram rail_urban rail rail_electric rail_fast ship container cable_car subway aircraft wheelchair scooter drone" speed="13.89" length="4.38" shape="511.06,326.20 509.85,325.72 509.00,325.48 508.11,325.35 506.82,325.22"/>
    </edge>
    <edge id=":10245056198_1" function="internal">
        <lane id=":10245056198_1_0" index="0" disallow="tram rail_urban rail rail_electric rail_fast ship container cable_car subway aircraft wheelchair scooter drone" speed="13.89" length="5.31" shape="507.19,322.04 508.75,322.21 509.83,322.37 510.86,322.67 512.32,323.26"/>
    </edge>
    <edge id=":10245056199_0" function="internal">
        <lane id=":10245056199_0_0" index="0" disallow="tram rail_urban rail rail_electric rail_fast ship container cable_car subway aircraft wheelchair scooter drone" speed="13.41" length="4.83" shape="511.85,224.52 507.03,224.44"/>
    </edge>
    <edge id=":10245056199_1" function="internal">
        <lane id=":10245056199_1_0" index="0" disallow="tram rail_urban rail rail_electric rail_fast ship container cable_car subway aircraft wheelchair scooter drone" speed="13.41" length="4.82" shape="507.08,221.24 511.90,221.32"/>
    </edge>
    <edge id=":10300183365_0" function="internal">
        <lane id=":10300183365_0_0" index="0" allow="bicycle" speed="5.56" length="5.17" width="2.00" shape="1602.02,327.21 1597.22,325.31"/>
    </edge>
    <edge id=":10300183365_1" function="internal">
        <lane id=":10300183365_1_0" index="0" allow="bicycle" speed="2.89" length="1.22" width="2.00" shape="1602.02,327.21 1601.53,326.46 1601.51,326.14"/>
    </edge>
    <edge id=":10300183365_4" function="internal">
        <lane id=":10300183365_4_0" index="0" allow="bicycle" speed="2.89" length="1.70" width="2.00" shape="1601.51,326.14 1601.50,325.90 1601.92,325.54 1602.81,325.38"/>
    </edge>
    <edge id=":10300183365_2" function="internal">
        <lane id=":10300183365_2_0" index="0" allow="bicycle" speed="5.56" length="5.32" width="2.00" shape="1597.86,323.42 1602.81,325.38"/>
    </edge>
    <edge id=":10300183365_3" function="internal">
        <lane id=":10300183365_3_0" index="0" allow="bicycle" speed="2.89" length="1.35" width="2.00" shape="1597.86,323.42 1598.41,324.14 1598.47,324.58"/>
    </edge>
    <edge id=":10300183365_5" function="internal">
        <lane id=":10300183365_5_0" index="0" allow="bicycle" speed="2.89" length="1.57" width="2.00" shape="1598.47,324.58 1598.48,324.69 1598.09,325.08 1597.22,325.31"/>
    </edge>
    <edge id=":10300183390_0" function="internal">
        <lane id=":10300183390_0_0" index="0" allow="bicycle" speed="5.56" length="2.13" width="2.00" shape="1342.00,234.24 1339.89,233.98"/>
    </edge>
    <edge id=":10300183390_1" function="internal">
        <lane id=":10300183390_1_0" index="0" allow="bicycle" speed="2.89" length="1.27" width="2.00" shape="1342.00,234.24 1341.32,233.65 1341.19,233.31"/>
    </edge>
    <edge id=":10300183390_4" function="internal">
        <lane id=":10300183390_4_0" index="0" allow="bicycle" speed="2.89" length="1.65" width="2.00" shape="1341.19,233.31 1341.13,233.13 1341.44,232.66 1342.24,232.25"/>
    </edge>
    <edge id=":10300183390_2" function="internal">
        <lane id=":10300183390_2_0" index="0" allow="bicycle" speed="5.56" length="2.12" width="2.00" shape="1340.14,232.00 1342.24,232.25"/>
    </edge>
    <edge id=":10300183390_3" function="internal">
        <lane id=":10300183390_3_0" index="0" allow="bicycle" speed="2.89" length="1.26" width="2.00" shape="1340.14,232.00 1340.82,232.59 1340.94,232.93"/>
    </edge>
    <edge id=":10300183390_5" function="internal">
        <lane id=":10300183390_5_0" index="0" allow="bicycle" speed="2.89" length="1.66" width="2.00" shape="1340.94,232.93 1341.00,233.12 1340.69,233.58 1339.89,233.98"/>
    </edge>
    <edge id=":10300219218_0" function="internal">
        <lane id=":10300219218_0_0" index="0" disallow="tram rail_urban rail rail_electric rail_fast ship container cable_car subway aircraft wheelchair scooter drone" speed="13.89" length="9.78" shape="981.88,833.66 973.17,838.10"/>
    </edge>
    <edge id=":10300219218_1" function="internal">
        <lane id=":10300219218_1_0" index="0" allow="pedestrian delivery bicycle" speed="6.67" length="3.78" shape="981.88,833.66 978.28,834.80"/>
    </edge>
    <edge id=":10300219218_7" function="internal">
        <lane id=":10300219218_7_0" index="0" allow="pedestrian delivery bicycle" speed="6.67" length="9.01" shape="978.28,834.80 975.71,834.31 974.17,832.20 973.67,828.45"/>
    </edge>
    <edge id=":10300219218_2" function="internal">
        <lane id=":10300219218_2_0" index="0" allow="pedestrian delivery bicycle" speed="4.71" length="5.66" shape="976.87,828.46 977.09,830.12 977.77,831.06 978.91,831.27 980.51,830.77"/>
    </edge>
    <edge id=":10300219218_3" function="internal">
        <lane id=":10300219218_3_0" index="0" allow="pedestrian delivery bicycle" speed="8.95" length="10.76" shape="976.87,828.46 976.63,831.88 975.93,834.62 974.78,836.69 973.17,838.10"/>
    </edge>
    <edge id=":10300219218_4" function="internal">
        <lane id=":10300219218_4_0" index="0" allow="pedestrian delivery bicycle" speed="3.65" length="4.67" shape="976.87,828.46 976.06,829.66 975.26,830.06 974.46,829.66 973.67,828.45"/>
    </edge>
    <edge id=":10300219218_5" function="internal">
        <lane id=":10300219218_5_0" index="0" allow="pedestrian delivery bicycle" speed="7.54" length="7.45" shape="971.56,835.33 972.48,834.44 973.13,833.00 973.53,831.01 973.67,828.45"/>
    </edge>
    <edge id=":10300219218_6" function="internal">
        <lane id=":10300219218_6_0" index="0" disallow="tram rail_urban rail rail_electric rail_fast ship container cable_car subway aircraft wheelchair scooter drone" speed="13.89" length="10.04" shape="971.56,835.33 980.51,830.77"/>
    </edge>
    <edge id=":10300219219_0" function="internal">
        <lane id=":10300219219_0_0" index="0" allow="pedestrian delivery bicycle" speed="3.65" length="4.67" shape="973.67,826.18 974.48,824.98 975.28,824.59 976.08,824.99 976.87,826.19"/>
    </edge>
    <edge id=":10300242230_0" function="internal">
        <lane id=":10300242230_0_0" index="0" allow="bicycle" speed="5.56" length="7.66" width="2.00" shape="1495.66,303.28 1488.57,306.18"/>
    </edge>
    <edge id=":10300242230_1" function="internal">
        <lane id=":10300242230_1_0" index="0" allow="bicycle" speed="2.89" length="1.27" width="2.00" shape="1495.66,303.28 1494.78,303.10 1494.50,302.86"/>
    </edge>
    <edge id=":10300242230_4" function="internal">
        <lane id=":10300242230_4_0" index="0" allow="bicycle" speed="2.89" length="1.65" width="2.00" shape="1494.50,302.86 1494.36,302.74 1494.40,302.18 1494.91,301.43"/>
    </edge>
    <edge id=":10300242230_2" function="internal">
        <lane id=":10300242230_2_0" index="0" allow="bicycle" speed="5.56" length="7.66" width="2.00" shape="1487.81,304.33 1494.91,301.43"/>
    </edge>
    <edge id=":10300242230_3" function="internal">
        <lane id=":10300242230_3_0" index="0" allow="bicycle" speed="2.89" length="1.27" width="2.00" shape="1487.81,304.33 1488.70,304.51 1488.98,304.75"/>
    </edge>
    <edge id=":10300242230_5" function="internal">
        <lane id=":10300242230_5_0" index="0" allow="bicycle" speed="2.89" length="1.65" width="2.00" shape="1488.98,304.75 1489.12,304.88 1489.08,305.44 1488.57,306.18"/>
    </edge>
    <edge id=":10302243631_0" function="internal">
        <lane id=":10302243631_0_0" index="0" disallow="tram rail_urban rail rail_electric rail_fast ship container cable_car subway aircraft wheelchair scooter drone" speed="7.37" length="5.38" shape="1013.00,330.66 1012.29,330.12 1011.29,329.72 1010.00,329.46 1008.42,329.34"/>
        <lane id=":10302243631_0_1" index="1" disallow="tram rail_urban rail rail_electric rail_fast ship container cable_car subway aircraft wheelchair scooter drone" speed="8.07" length="5.38" shape="1015.35,328.50 1014.27,327.53 1013.04,326.83 1011.65,326.38 1010.10,326.20"/>
    </edge>
    <edge id=":10302243631_2" function="internal">
        <lane id=":10302243631_2_0" index="0" allow="pedestrian delivery bicycle" speed="9.92" length="5.37" shape="1015.35,328.50 1014.42,327.27 1014.05,326.26 1013.93,325.13 1013.74,323.53"/>
    </edge>
    <edge id=":10303953191_0" function="internal">
        <lane id=":10303953191_0_0" index="0" disallow="tram rail_urban rail rail_electric rail_fast ship container cable_car subway aircraft wheelchair scooter drone" speed="13.41" length="11.43" shape="1632.88,623.80 1635.01,626.25 1636.79,627.63 1638.85,628.66 1641.85,630.06"/>
        <lane id=":10303953191_0_1" index="1" disallow="tram rail_urban rail rail_electric rail_fast ship container cable_car subway aircraft wheelchair scooter drone" speed="13.41" length="11.43" shape="1630.86,626.42 1633.12,628.99 1635.03,630.41 1637.24,631.46 1640.42,632.92"/>
    </edge>
    <edge id=":10303953191_2" function="internal">
        <lane id=":10303953191_2_0" index="0" disallow="tram rail_urban rail rail_electric rail_fast ship container cable_car subway aircraft wheelchair scooter drone" speed="7.91" length="11.08" shape="1630.86,626.42 1633.17,629.72 1634.51,632.48 1634.91,634.68 1634.34,636.33"/>
    </edge>
    <edge id=":10303953191_3" function="internal">