<?xml version="1.0" encoding="UTF-8"?>

<!-- generated on 2025-02-14 18:51:50 by Eclipse SUMO polyconvert Version 1.20.0
<configuration xmlns:xsi="http://www.w3.org/2001/XMLSchema-instance" xsi:noNamespaceSchemaLocation="http://sumo.dlr.de/xsd/polyconvertConfiguration.xsd">

    <input>
        <net-file value="osm.net.xml.gz"/>
        <osm-files value="osm_bbox.osm.xml.gz"/>
        <osm.keep-full-type value="true"/>
        <osm.merge-relations value="1"/>
        <type-file value="${SUMO_HOME}/data/typemap/osmPolyconvert.typ.xml"/>
    </input>

    <output>
        <output-file value="osm.poly.xml.gz"/>
    </output>

    <report>
        <verbose value="true"/>
    </report>

</configuration>
-->

<additional xmlns:xsi="http://www.w3.org/2001/XMLSchema-instance" xsi:noNamespaceSchemaLocation="http://sumo.dlr.de/xsd/additional_file.xsd">
    <location netOffset="-578115.90,-5618674.35" convBoundary="-4.28,-9.47,1772.11,1264.95" origBoundary="-1.893338,50.714475,-1.868352,50.725774" projParameter="+proj=utm +zone=30 +ellps=WGS84 +datum=WGS84 +units=m +no_defs"/>

    <poly id="1011268053" type="leisure.garden" color="207,245,201" fill="1" layer="-2.00" shape="1259.074846,269.371197 1260.828347,272.467502 1260.286532,273.738298 1255.682326,280.741933 1252.596460,284.476530 1249.640299,288.969393 1247.605161,291.863561 1247.427494,294.263210 1246.080181,298.825000 1245.291060,301.037410 1245.454469,302.830531 1245.692420,305.759225 1247.053907,309.561378 1248.274206,313.361387 1253.952518,311.412319 1250.477326,300.337648 1253.115064,299.143176 1252.957913,294.614143 1254.863051,290.516829 1259.508039,286.405528 1265.979231,281.999438 1269.724495,278.085794 1272.071347,274.195393 1272.200455,271.739397 1271.520204,270.038520 1268.621712,267.480914 1259.337238,264.648342 1259.074846,269.371197"/>
    <poly id="1011268055" type="natural.wood" color="140,196,107" fill="1" layer="-4.00" shape="1139.857666,344.336456 1135.861933,348.479952 1131.643204,351.963873 1131.193366,356.483693 1129.882765,361.891338 1127.313034,372.106823 1126.913289,376.582916 1126.815981,382.998819 1126.935097,390.507958 1127.301957,394.717628 1125.938919,400.324675 1122.373167,401.260451 1120.307924,400.094689 1116.990776,397.208280 1115.042255,394.398238 1113.248550,391.156787 1114.928855,386.511039 1116.722523,383.702136 1117.585274,379.889261 1118.343464,376.452947 1118.384067,367.722814 1116.624101,361.790356 1116.576679,358.864558 1116.729321,354.851841 1118.705673,352.568441 1123.197294,350.178603 1125.662496,349.648769 1128.995330,348.709462 1132.524691,346.916745 1135.497076,344.603971 1136.798405,343.066634 1138.933178,342.442819 1139.927178,342.546873 1140.384458,343.588153 1139.857666,344.336456"/>
    <poly id="1011268056" type="natural.wood" color="140,196,107" fill="1" layer="-4.00" shape="1228.107572,294.347935 1228.577553,301.061625 1229.056055,313.258580 1230.807518,328.577898 1233.114753,342.170629 1233.141270,345.073868 1232.732547,346.880544 1228.065268,348.744889 1222.548388,350.296044 1218.245821,349.997150 1210.317113,348.097250 1208.480739,347.668978 1207.741855,347.969176 1207.955394,349.251445 1209.538388,351.021629 1219.217604,352.959230 1222.043244,353.802919 1232.919782,361.052789 1228.680395,365.893200 1228.521143,367.080834 1230.332856,369.132547 1230.724928,369.816942 1230.641671,370.649826 1227.274352,374.324552 1221.605958,379.810587 1217.295570,386.073542 1213.488936,387.061210 1211.615771,389.056969 1206.189494,391.154493 1203.749655,389.549253 1202.583653,385.427542 1202.857349,376.700944 1202.036276,374.508572 1195.723632,375.458209 1193.297204,379.480898 1193.849744,383.548807 1193.550995,387.414721 1191.438105,390.318851 1181.140618,385.391226 1159.532382,428.817174 1157.462380,428.896986 1151.257426,426.011227 1149.135545,422.064100 1147.834231,417.551079 1148.001067,412.604331 1149.581194,408.513172 1151.218509,406.702887 1154.595185,405.664163 1156.089277,407.243909 1158.888409,409.833312 1161.751145,408.230696 1164.884794,401.338132 1161.305383,397.124200 1161.443523,394.534876 1164.525717,391.033733 1165.445851,389.490619 1164.353028,386.593445 1158.906055,383.541228 1149.919090,380.190627 1146.359730,380.703850 1141.127139,378.878321 1140.266384,376.507406 1142.715028,374.275668 1145.379422,373.181645 1147.526979,372.179881 1149.876112,373.249863 1152.204300,376.165776 1154.938168,377.008036 1160.387869,376.623599 1165.878549,376.795888 1171.691756,377.117663 1176.342423,376.810093 1181.437427,374.674145 1184.557619,368.671146 1182.961970,364.943310 1180.419825,362.168721 1178.214661,359.521589 1174.104864,356.756579 1169.390788,357.519190 1166.538848,357.943036 1162.682951,356.127256 1158.526854,354.551606 1154.181923,351.460507 1151.064132,347.998759 1150.340252,344.517721 1153.559966,340.796219 1156.556224,341.564606 1160.556639,344.094381 1163.249936,343.423441 1168.001348,345.319543 1171.531654,344.861503 1173.767652,346.408024 1176.289334,348.670687 1179.131999,348.858414 1183.863183,348.830122 1186.444436,347.167637 1187.193230,341.562404 1186.827676,325.174184 1188.872930,318.354090 1191.760198,315.139175 1197.467199,313.624239 1197.138324,310.171434 1194.479666,307.628632 1194.665916,304.661892 1195.052219,301.075357 1194.781245,291.016978 1195.048638,270.145088 1199.021509,270.305492 1201.653021,271.846906 1204.321655,273.733666 1208.384069,274.507145 1214.629526,274.735430 1218.999298,273.867532 1221.205081,275.079954 1222.254169,280.857068 1220.035502,283.748459 1216.851730,284.167241 1215.594713,286.038891 1216.570805,290.113233 1213.928419,293.009315 1211.356585,294.049100 1211.132221,296.270089 1213.652562,298.621725 1214.605712,301.416691 1214.110605,305.657769 1211.919083,310.017677 1207.448825,310.995274 1205.548336,311.533643 1203.443698,316.217410 1200.979303,319.483226 1198.214522,320.675795 1196.531970,322.207330 1196.719659,325.657992 1199.574645,327.825629 1201.512389,328.088606 1204.866843,328.517678 1209.359351,328.863932 1213.424643,326.189647 1212.998270,323.113507 1211.044031,320.681490 1212.071629,318.572794 1214.046011,316.422863 1216.064776,314.140143 1218.306189,310.214752 1218.634483,307.194559 1218.949101,305.075038 1220.870385,300.377371 1223.336997,296.967012 1223.405861,295.221907 1225.333342,293.371561 1227.450417,293.915321 1228.107572,294.347935"/>
    <poly id="1014153476" type="landuse.construction" color="194,194,130" fill="1" layer="-3.00" shape="932.957387,372.599383 910.000669,386.744026 911.902646,399.173782 942.946704,398.375532 957.832419,397.332894 973.500677,381.910320 957.129043,369.628556 932.957387,372.599383"/>
    <poly id="1014154313" type="building.apartments" color="255,230,230" fill="1" layer="-1.00" shape="499.051157,864.371330 504.179888,875.893000 493.213189,880.743962 491.123738,876.030181 495.587252,874.050908 492.562075,867.243240 499.051157,864.371330"/>
    <poly id="1022405841" type="building.yes" color="255,230,230" fill="1" layer="-1.00" shape="965.982267,673.358908 975.679810,681.046408 973.182112,684.200601 967.762011,691.047539 958.064308,683.371172 965.982267,673.358908"/>
    <poly id="1022405842" type="building.yes" color="255,230,230" fill="1" layer="-1.00" shape="958.064308,683.371172 967.762011,691.047539 959.952142,700.916850 950.261506,693.240605 958.064308,683.371172"/>
    <poly id="1022405843" type="building.yes" color="255,230,230" fill="1" layer="-1.00" shape="950.261506,693.240605 959.952142,700.916850 952.271715,710.632425 942.581086,702.956193 950.261506,693.240605"/>
    <poly id="1022405844" type="building.retail" color="255,230,230" fill="1" layer="-1.00" shape="901.260282,770.419739 892.975240,758.972268 888.683877,764.023473 896.028119,774.188805 901.260282,770.419739"/>
    <poly id="1022405844#1" type="shop.optician" color="237,199,255" fill="1" layer="-1.00" shape="901.260282,770.419739 892.975240,758.972268 888.683877,764.023473 896.028119,774.188805 901.260282,770.419739"/>
    <poly id="102444434" type="building.yes" color="255,230,230" fill="1" layer="-1.00" shape="1207.912059,441.863503 1214.487591,446.845890 1207.824952,455.041727 1201.137630,450.446921 1207.912059,441.863503"/>
    <poly id="102444434#1" type="leisure.bandstand" color="207,245,201" fill="1" layer="-2.00" shape="1207.912059,441.863503 1214.487591,446.845890 1207.824952,455.041727 1201.137630,450.446921 1207.912059,441.863503"/>
    <poly id="102444438" type="leisure.miniature_golf" color="207,245,201" fill="1" layer="-2.00" shape="1181.140618,385.391226 1159.532382,428.817174 1144.467742,450.498910 1154.474431,460.160016 1166.608679,450.590161 1181.755869,429.988571 1191.224764,412.281518 1197.915181,393.420105 1191.438105,390.318851 1181.140618,385.391226"/>
    <poly id="1025530972" type="building.roof" color="255,230,230" fill="1" layer="-1.00" shape="1140.985136,665.634108 1138.897633,667.804592 1136.130298,670.109349 1128.794305,662.212682 1131.536779,659.685105 1133.642085,657.737328 1140.985136,665.634108"/>
    <poly id="1039600691" type="building.yes" color="255,230,230" fill="1" layer="-1.00" shape="1127.768141,313.701122 1135.121324,314.446602 1139.954166,312.373367 1150.207421,327.209914 1140.504965,334.247523 1132.145643,331.406965 1125.119683,324.916391 1127.768141,313.701122"/>
    <poly id="1040075085" type="building.garages" color="255,230,230" fill="1" layer="-1.00" shape="1136.129723,369.927180 1139.113772,372.430401 1134.008831,378.481174 1131.017723,375.977850 1136.129723,369.927180"/>
    <poly id="1041681873" type="building.apartments" color="255,230,230" fill="1" layer="-1.00" shape="504.298294,1025.640730 519.850470,1024.751507 520.494113,1035.927637 512.036165,1036.412027 512.210115,1039.395329 507.610167,1039.659750 507.168044,1031.978948 504.673630,1032.130478 504.298294,1025.640730"/>
    <poly id="1041681874" type="building.apartments" color="255,230,230" fill="1" layer="-1.00" shape="527.832691,1021.635186 527.824165,1033.924816 544.400492,1033.940841 544.409057,1021.651211 527.832691,1021.635186"/>
    <poly id="1041681875" type="building.apartments" color="255,230,230" fill="1" layer="-1.00" shape="554.327451,1056.389855 565.215704,1051.571211 572.415937,1044.594983 579.625310,1052.477837 571.260469,1059.436511 558.606068,1065.741128 554.327451,1056.389855"/>
    <poly id="1041681877" type="building.yes" color="255,230,230" fill="1" layer="-1.00" shape="478.924556,1041.630412 484.844748,1056.845345 495.567611,1052.691386 489.647277,1037.487561 478.924556,1041.630412"/>
    <poly id="1042011850" type="building.yes" color="255,230,230" fill="1" layer="-1.00" shape="133.681203,1068.211575 137.111240,1073.935144 144.783232,1069.356625 146.250314,1071.803187 150.916093,1069.025878 149.662319,1066.949535 152.798788,1067.763943 154.078552,1062.922833 150.435888,1061.967376 145.428837,1053.595395 140.328497,1056.633125 141.692210,1058.911308 134.875022,1062.979906 136.872434,1066.313042 133.681203,1068.211575"/>
    <poly id="1042011851" type="building.yes" color="255,230,230" fill="1" layer="-1.00" shape="166.039669,1041.603369 171.461129,1056.710353 188.282814,1050.711960 182.861395,1035.604959 166.039669,1041.603369"/>
    <poly id="1042011852" type="building.yes" color="255,230,230" fill="1" layer="-1.00" shape="204.647233,1027.656835 208.042100,1036.193775 234.653345,1025.659986 231.258514,1017.123030 204.647233,1027.656835"/>
    <poly id="1042011853" type="building.yes" color="255,230,230" fill="1" layer="-1.00" shape="239.350160,1014.230352 256.961103,1006.931626 255.427704,1003.260624 269.983943,997.228500 278.849246,1018.526590 255.647580,1028.132578 251.858970,1019.022481 242.886646,1022.736073 239.350160,1014.230352"/>
    <poly id="1042011854" type="building.yes" color="255,230,230" fill="1" layer="-1.00" shape="275.850037,990.687852 280.382118,1001.533026 288.068941,998.334055 288.927580,1000.393379 293.374789,998.547157 292.482195,996.398346 300.666287,992.995541 296.168197,982.239834 275.850037,990.687852"/>
    <poly id="1042011855" type="building.yes" color="255,230,230" fill="1" layer="-1.00" shape="317.081669,978.816828 322.530531,992.545266 338.474489,986.256120 333.018770,972.516439 317.081669,978.816828"/>
    <poly id="1042011856" type="building.yes" color="255,230,230" fill="1" layer="-1.00" shape="335.862282,972.625874 344.857316,969.290925 349.458152,981.660900 340.456244,984.984616 335.862282,972.625874"/>
    <poly id="1042011857" type="building.yes" color="255,230,230" fill="1" layer="-1.00" shape="353.597307,968.365621 356.289354,975.268300 358.256375,974.508191 360.540279,980.381522 373.130730,975.510198 368.154973,962.723056 353.597307,968.365621"/>
    <poly id="1042011858" type="building.apartments" color="255,230,230" fill="1" layer="-1.00" shape="379.563180,955.720814 389.750390,951.514099 389.491227,953.256350 393.732484,951.496091 398.277307,962.419417 388.104227,966.626327 386.169168,961.970518 382.744981,963.387158 379.563180,955.720814"/>
    <poly id="1042011859" type="building.apartments" color="255,230,230" fill="1" layer="-1.00" shape="400.011724,965.392801 403.903399,975.616755 418.437922,970.107444 416.712970,965.566001 414.185150,966.528974 412.018449,960.846454 400.011724,965.392801"/>
    <poly id="1042011860" type="building.yes" color="255,230,230" fill="1" layer="-1.00" shape="187.332819,1033.080573 191.830038,1031.190528 192.907238,1033.742477 198.434741,1031.411883 203.255220,1042.806286 195.873521,1045.909856 194.803216,1043.369131 192.153153,1044.486085 187.332819,1033.080573"/>
    <poly id="1042011861" type="building.yes" color="255,230,230" fill="1" layer="-1.00" shape="122.427275,1063.538622 123.327536,1072.249457 125.172894,1072.065780 125.567825,1075.864275 123.808793,1076.883390 124.388323,1082.497524 130.370050,1081.886441 128.401966,1062.927431 122.427275,1063.538622"/>
    <poly id="1042011862" type="building.yes" color="255,230,230" fill="1" layer="-1.00" shape="349.225853,601.809798 353.973588,619.464888 360.602986,617.607004 355.560637,599.825141 349.225853,601.809798"/>
    <poly id="1042011863" type="building.yes" color="255,230,230" fill="1" layer="-1.00" shape="346.444719,621.509466 353.973588,619.464888 355.532133,628.986432 348.471451,630.415211 346.444719,621.509466"/>
    <poly id="1042011864" type="building.yes" color="255,230,230" fill="1" layer="-1.00" shape="348.471451,630.415211 355.532133,628.986432 357.671215,640.752206 355.930409,641.015228 350.425639,641.800059 348.471451,630.415211"/>
    <poly id="1042011865" type="building.yes" color="255,230,230" fill="1" layer="-1.00" shape="350.425639,641.800059 355.930409,641.015228 358.495743,656.835791 359.654885,656.753105 360.353471,661.479301 357.838923,662.019870 354.158176,662.643022 350.425639,641.800059"/>
    <poly id="1042011866" type="building.yes" color="255,230,230" fill="1" layer="-1.00" shape="354.158176,662.643022 357.838923,662.019870 358.521643,667.802411 355.028524,669.095697 354.158176,662.643022"/>
    <poly id="1042011867" type="building.yes" color="255,230,230" fill="1" layer="-1.00" shape="358.521643,667.802411 360.172746,673.510523 361.625636,673.143080 364.654455,683.487494 359.036665,684.748859 355.028524,669.095697 358.521643,667.802411"/>
    <poly id="1042011868" type="building.yes" color="255,230,230" fill="1" layer="-1.00" shape="361.625636,673.143080 366.956870,671.688339 370.471520,681.650787 364.654455,683.487494 361.625636,673.143080"/>
    <poly id="1042011869" type="building.yes" color="255,230,230" fill="1" layer="-1.00" shape="366.956870,671.688339 373.735444,669.765983 376.772928,679.532194 370.471520,681.650787 366.956870,671.688339"/>
    <poly id="1042011870" type="building.yes" color="255,230,230" fill="1" layer="-1.00" shape="373.735444,669.765983 379.551024,668.029361 382.834720,677.854885 376.772928,679.532194 373.735444,669.765983"/>
    <poly id="1042011871" type="building.yes" color="255,230,230" fill="1" layer="-1.00" shape="379.551024,668.029361 385.756344,666.198505 388.629286,676.106836 382.834720,677.854885 379.551024,668.029361"/>
    <poly id="1042011872" type="building.yes" color="255,230,230" fill="1" layer="-1.00" shape="385.756344,666.198505 391.662360,664.552231 392.498839,666.677969 394.890401,674.321316 388.629286,676.106836 385.756344,666.198505"/>
    <poly id="1042011873" type="building.yes" color="255,230,230" fill="1" layer="-1.00" shape="390.080389,649.547205 413.803969,641.984931 407.995808,630.542128 386.483469,638.482436 390.080389,649.547205"/>
    <poly id="1042011874" type="building.yes" color="255,230,230" fill="1" layer="-1.00" shape="390.080389,649.547205 392.467492,657.957897 394.385792,663.736768 420.428105,655.975811 415.805338,646.463792 413.803969,641.984931 390.080389,649.547205"/>
    <poly id="1042011875" type="building.yes" color="255,230,230" fill="1" layer="-1.00" shape="415.805338,646.463792 413.803969,641.984931 407.995808,630.542128 429.382793,626.248020 432.085467,632.450209 434.396928,639.313835 415.805338,646.463792"/>
    <poly id="1042011878" type="building.yes" color="255,230,230" fill="1" layer="-1.00" shape="432.085467,632.450209 429.382793,626.248020 440.495435,624.869154 442.529014,630.961190 432.085467,632.450209"/>
    <poly id="1042011879" type="building.yes" color="255,230,230" fill="1" layer="-1.00" shape="440.495435,624.869154 442.529014,630.961190 444.716892,639.469010 451.784817,638.029348 447.362423,624.116024 440.495435,624.869154"/>
    <poly id="1042011880" type="building.yes" color="255,230,230" fill="1" layer="-1.00" shape="456.101397,639.729191 458.727270,651.035212 466.850991,649.811645 464.570017,640.924269 460.505390,641.719523 459.871061,638.829399 456.101397,639.729191"/>
    <poly id="1042011881" type="building.yes" color="255,230,230" fill="1" layer="-1.00" shape="456.101397,639.729191 459.871061,638.829399 468.785821,636.650123 466.091410,623.329995 452.474514,624.092804 456.101397,639.729191"/>
    <poly id="1042011882" type="building.yes" color="255,230,230" fill="1" layer="-1.00" shape="466.091410,623.329995 468.785821,636.650123 474.870777,635.785170 474.003447,629.610566 472.664946,622.372289 466.091410,623.329995"/>
    <poly id="1042011883" type="building.yes" color="255,230,230" fill="1" layer="-1.00" shape="474.003447,629.610566 482.991090,628.689189 481.942013,621.455265 472.664946,622.372289 474.003447,629.610566"/>
    <poly id="1042011884" type="building.yes" color="255,230,230" fill="1" layer="-1.00" shape="482.991090,628.689189 495.161060,627.426444 494.985923,619.827521 481.942013,621.455265 482.991090,628.689189"/>
    <poly id="1042011885" type="building.yes" color="255,230,230" fill="1" layer="-1.00" shape="494.985923,619.827521 495.161060,627.426444 500.245404,629.716218 502.105429,627.631038 504.176154,624.681518 494.985923,619.827521"/>
    <poly id="1042011886" type="building.yes" color="255,230,230" fill="1" layer="-1.00" shape="502.105429,627.631038 500.245404,629.716218 498.471289,632.191959 494.280219,634.820405 469.395525,640.707682 470.744227,647.267673 496.798080,640.630581 501.194124,637.048734 505.508922,632.297863 502.105429,627.631038"/>
    <poly id="1042011887" type="building.yes" color="255,230,230" fill="1" layer="-1.00" shape="504.176154,624.681518 502.105429,627.631038 505.508922,632.297863 512.779590,628.648067 515.984727,632.889280 519.416586,639.892150 527.870786,633.602044 518.181296,623.924687 514.904634,623.497223 512.640048,620.093191 504.176154,624.681518"/>
    <poly id="1042011888" type="building.yes" color="255,230,230" fill="1" layer="-1.00" shape="519.416586,639.892150 521.806682,642.931051 523.649507,645.272155 526.190736,649.058504 527.870786,633.602044 519.416586,639.892150"/>
    <poly id="1042011889" type="building.yes" color="255,230,230" fill="1" layer="-1.00" shape="523.649507,645.272155 526.190736,649.058504 514.870680,657.652208 510.428812,651.612871 514.726034,648.029548 521.806682,642.931051 523.649507,645.272155"/>
    <poly id="1042011890" type="building.yes" color="255,230,230" fill="1" layer="-1.00" shape="514.870680,657.652208 510.428812,651.612871 509.026610,648.611087 501.194124,637.048734 496.798080,640.630581 498.646805,643.049618 499.976158,644.793524 501.129543,646.501416 505.480027,652.984247 506.716105,654.826848 508.362656,657.543139 510.195274,660.562523 514.870680,657.652208"/>
    <poly id="1042011891" type="building.yes" color="255,230,230" fill="1" layer="-1.00" shape="510.195274,660.562523 508.362656,657.543139 505.480027,652.984247 502.256128,654.681877 503.699302,659.652860 504.682892,663.260051 510.195274,660.562523"/>
    <poly id="1042011892" type="building.yes" color="255,230,230" fill="1" layer="-1.00" shape="504.682892,663.260051 503.699302,659.652860 502.256128,654.681877 498.268515,648.482557 493.186546,651.197696 495.432224,655.858215 497.002953,663.144481 497.759631,666.347866 504.682892,663.260051"/>
    <poly id="1042011893" type="building.yes" color="255,230,230" fill="1" layer="-1.00" shape="497.002953,663.144481 495.432224,655.858215 493.186546,651.197696 491.149879,648.130760 486.795103,650.378603 487.293163,651.531657 489.885825,657.532028 488.364675,657.742702 487.760503,655.664930 482.143789,656.381205 483.706339,664.212319 490.285516,662.876575 490.661431,664.639499 497.002953,663.144481"/>
    <poly id="1042011894" type="building.yes" color="255,230,230" fill="1" layer="-1.00" shape="482.143789,656.381205 478.165883,657.044287 478.885004,661.337054 473.505787,662.223741 472.049369,653.437740 474.264790,653.070677 481.392220,651.898877 481.664432,653.515654 482.143789,656.381205"/>
    <poly id="1042011895" type="building.yes" color="255,230,230" fill="1" layer="-1.00" shape="531.887800,601.264285 538.469915,594.111866 544.693955,599.488499 536.150373,610.303866 531.331860,607.239523 534.105899,603.066066 531.887800,601.264285"/>
    <poly id="1042011896" type="building.yes" color="255,230,230" fill="1" layer="-1.00" shape="544.693955,599.488499 549.726376,604.758220 540.578215,614.930526 539.563167,613.413781 536.150373,610.303866 544.693955,599.488499"/>
    <poly id="1042011897" type="building.yes" color="255,230,230" fill="1" layer="-1.00" shape="549.726376,604.758220 554.568198,610.025077 544.265263,620.458036 540.578215,614.930526 549.726376,604.758220"/>
    <poly id="1042011898" type="building.yes" color="255,230,230" fill="1" layer="-1.00" shape="554.568198,610.025077 559.014407,615.775346 546.564788,623.884853 544.265263,620.458036 554.568198,610.025077"/>
    <poly id="1042011899" type="building.yes" color="255,230,230" fill="1" layer="-1.00" shape="559.014407,615.775346 563.646866,622.284717 545.741041,631.702301 543.687156,626.966793 547.255100,624.929588 546.564788,623.884853 559.014407,615.775346"/>
    <poly id="1042011900" type="building.yes" color="255,230,230" fill="1" layer="-1.00" shape="563.646866,622.284717 572.010484,643.108628 561.478335,644.384737 556.063701,631.679785 548.791673,632.604624 545.741041,631.702301 563.646866,622.284717"/>
    <poly id="1042011901" type="building.yes" color="255,230,230" fill="1" layer="-1.00" shape="572.010484,643.108628 572.354178,652.634193 562.210772,650.601814 561.725881,647.168952 561.478335,644.384737 572.010484,643.108628"/>
    <poly id="1042011902" type="building.yes" color="255,230,230" fill="1" layer="-1.00" shape="562.210772,650.601814 572.354178,652.634193 572.155370,659.271002 561.576510,657.087480 553.939117,654.614615 554.382359,649.560803 562.210772,650.601814"/>
    <poly id="1042011903" type="building.yes" color="255,230,230" fill="1" layer="-1.00" shape="561.576510,657.087480 572.155370,659.271002 569.809960,667.799577 552.664720,661.413179 553.939117,654.614615 561.576510,657.087480"/>
    <poly id="1042011904" type="building.yes" color="255,230,230" fill="1" layer="-1.00" shape="552.664720,661.413179 569.809960,667.799577 566.737329,673.047348 557.733332,668.963455 551.658479,666.814416 552.664720,661.413179"/>
    <poly id="1042011905" type="building.yes" color="255,230,230" fill="1" layer="-1.00" shape="557.733332,668.963455 566.737329,673.047348 561.814887,679.701993 552.460172,673.121511 557.733332,668.963455"/>
    <poly id="1042011906" type="building.yes" color="255,230,230" fill="1" layer="-1.00" shape="552.460172,673.121511 561.814887,679.701993 555.952871,684.518493 547.761653,677.566273 552.460172,673.121511"/>
    <poly id="1042011907" type="building.yes" color="255,230,230" fill="1" layer="-1.00" shape="547.761653,677.566273 555.952871,684.518493 550.385967,688.961298 543.174855,681.156331 547.761653,677.566273"/>
    <poly id="1042011908" type="building.yes" color="255,230,230" fill="1" layer="-1.00" shape="550.385967,688.961298 543.174855,681.156331 536.811832,674.231654 531.039952,679.627881 535.797295,683.936963 542.609998,692.881482 550.385967,688.961298"/>
    <poly id="1042011909" type="building.yes" color="255,230,230" fill="1" layer="-1.00" shape="542.609998,692.881482 535.797295,683.936963 532.009040,685.603834 530.983541,683.375128 527.586196,684.869936 528.700476,687.767294 534.263763,696.225872 542.609998,692.881482"/>
    <poly id="1042011910" type="building.yes" color="255,230,230" fill="1" layer="-1.00" shape="528.700476,687.767294 524.033624,690.110505 527.748761,699.397646 534.263763,696.225872 528.700476,687.767294"/>
    <poly id="1042011911" type="building.yes" color="255,230,230" fill="1" layer="-1.00" shape="524.033624,690.110505 511.873217,696.845322 512.971990,706.871611 527.748761,699.397646 524.033624,690.110505"/>
    <poly id="1042011912" type="building.yes" color="255,230,230" fill="1" layer="-1.00" shape="511.873217,696.845322 507.232487,697.453917 508.533264,707.194075 512.971990,706.871611 511.873217,696.845322"/>
    <poly id="1042011913" type="building.yes" color="255,230,230" fill="1" layer="-1.00" shape="507.232487,697.453917 508.533264,707.194075 508.293616,709.982077 502.979644,710.758495 499.448936,695.312589 506.697181,694.554155 507.232487,697.453917"/>
    <poly id="1042014535" type="building.yes" color="255,230,230" fill="1" layer="-1.00" shape="1070.094026,692.497520 1059.109353,703.130472 1085.640665,726.977759 1091.036810,728.238499 1103.343385,719.827811 1109.879444,712.497444 1103.250067,703.632795 1090.935700,712.554977 1070.094026,692.497520"/>
    <poly id="1042014537" type="building.apartments" color="255,230,230" fill="1" layer="-1.00" shape="1126.812475,687.207075 1123.645082,681.442335 1116.121946,675.177779 1109.366094,680.703044 1104.478824,675.679652 1090.477214,691.104853 1103.250067,703.632795 1109.879444,712.497444 1125.122782,702.251728 1121.663555,698.039639 1116.228165,694.709584 1126.812475,687.207075"/>
    <poly id="1042014538" type="building.yes" color="255,230,230" fill="1" layer="-1.00" shape="1130.432476,729.692339 1128.582561,714.805312 1096.248359,734.223288 1103.114719,745.616213 1130.432476,729.692339"/>
    <poly id="1042014539" type="building.yes" color="255,230,230" fill="1" layer="-1.00" shape="1096.248359,734.223288 1103.114719,745.616213 1109.209970,757.108673 1097.746215,763.952805 1094.807640,760.326971 1081.750206,744.224577 1080.139061,742.454002 1096.248359,734.223288"/>
    <poly id="1042014540" type="building.yes" color="255,230,230" fill="1" layer="-1.00" shape="1109.209970,757.108673 1114.946143,766.671594 1103.482569,773.504594 1097.746215,763.952805 1109.209970,757.108673"/>
    <poly id="1042014542" type="building.yes" color="255,230,230" fill="1" layer="-1.00" shape="1148.259477,739.483205 1152.239932,747.495817 1132.530566,757.540240 1131.163920,747.565335 1148.259477,739.483205"/>
    <poly id="1042014543" type="building.yes" color="255,230,230" fill="1" layer="-1.00" shape="1114.946143,766.671594 1132.530566,757.540240 1131.163920,747.565335 1109.209970,757.108673 1114.946143,766.671594"/>
    <poly id="1042014544" type="building.yes" color="255,230,230" fill="1" layer="-1.00" shape="1160.609423,754.273762 1171.523438,770.633001 1166.412338,772.924414 1163.494007,768.898456 1159.442885,771.128108 1153.621472,757.882467 1160.609423,754.273762"/>
    <poly id="1042014545" type="building.yes" color="255,230,230" fill="1" layer="-1.00" shape="1153.621472,757.882467 1159.442885,771.128108 1153.860354,773.779405 1147.558098,760.582085 1153.621472,757.882467"/>
    <poly id="1042014546" type="building.yes" color="255,230,230" fill="1" layer="-1.00" shape="1159.442885,771.128108 1161.509515,774.518308 1155.180094,777.536416 1153.860354,773.779405 1159.442885,771.128108"/>
    <poly id="1042014547" type="building.yes" color="255,230,230" fill="1" layer="-1.00" shape="1155.180094,777.536416 1161.509515,774.518308 1179.803370,812.610700 1173.473814,815.639906 1155.180094,777.536416"/>
    <poly id="1042014548" type="building.yes" color="255,230,230" fill="1" layer="-1.00" shape="502.929877,674.655908 508.998914,672.500610 516.496887,668.287022 519.896859,665.680051 527.172452,657.948595 534.238789,663.649311 527.397264,670.686609 520.731439,675.902561 513.660316,679.433006 505.189563,683.075862 502.929877,674.655908"/>
    <poly id="1042014549" type="building.yes" color="255,230,230" fill="1" layer="-1.00" shape="528.459072,656.433135 535.236698,662.552140 542.225782,655.094439 532.756664,650.480857 528.459072,656.433135"/>
    <poly id="1042014550" type="building.yes" color="255,230,230" fill="1" layer="-1.00" shape="532.756664,650.480857 532.776024,645.442906 542.945485,644.339230 542.225782,655.094439 532.756664,650.480857"/>
    <poly id="1042014551" type="building.yes" color="255,230,230" fill="1" layer="-1.00" shape="532.776024,645.442906 542.945485,644.339230 551.239488,643.062747 549.409747,634.226613 540.686008,635.908141 532.678534,636.910905 532.776024,645.442906"/>